
     RDKit          3D

 32 36  0  0  0  0  0  0  0  0999 V2000
   24.0120    2.9280    6.3410 C   0  0  0  0  0  0  0  0  0  0  0  0
   23.9660    4.1830    5.4230 C   0  0  0  0  0  0  0  0  0  0  0  0
   25.2260    5.0650    5.6680 C   0  0  0  0  0  0  0  0  0  0  0  0
   25.2870    2.1360    6.1780 N   0  0  0  0  0  0  0  0  0  0  0  0
   26.5150    4.2220    5.3880 C   0  0  0  0  0  0  0  0  0  0  0  0
   26.5420    2.9700    6.3120 C   0  0  0  0  0  0  0  0  0  0  0  0
   25.3110    0.9360    7.0640 C   0  0  0  0  0  0  0  0  0  0  0  0
   24.5460   -0.3170    6.5450 C   0  0  0  0  0  0  0  0  0  0  0  0
   23.1320   -0.0240    6.5250 O   0  0  0  0  0  0  0  0  0  0  0  0
   22.1200   -0.9380    6.1460 C   0  0  0  0  0  0  0  0  0  0  0  0
   22.3660   -2.2930    5.7340 C   0  0  0  0  0  0  0  0  0  0  0  0
   21.2790   -3.1500    5.3790 C   0  0  0  0  0  0  0  0  0  0  0  0
   19.9310   -2.6770    5.4230 C   0  0  0  0  0  0  0  0  0  0  0  0
   19.6940   -1.3200    5.8340 C   0  0  0  0  0  0  0  0  0  0  0  0
   20.7740   -0.4760    6.1860 C   0  0  0  0  0  0  0  0  0  0  0  0
   18.7170   -3.5990    5.0390 C   0  0  1  0  0  0  0  0  0  0  0  0
   17.8210   -3.8890    6.2350 N   0  0  0  0  0  0  0  0  0  0  0  0
   16.3410   -3.9060    6.0830 C   0  0  0  0  0  0  0  0  0  0  0  0
   15.7840   -2.7600    5.1760 C   0  0  0  0  0  0  0  0  0  0  0  0
   16.6380   -2.5110    3.9110 C   0  0  0  0  0  0  0  0  0  0  0  0
   18.0130   -2.8960    3.8480 C   0  0  0  0  0  0  0  0  0  0  0  0
   18.7620   -2.6240    2.6530 C   0  0  0  0  0  0  0  0  0  0  0  0
   18.1520   -1.9800    1.5420 C   0  0  0  0  0  0  0  0  0  0  0  0
   16.7930   -1.6020    1.6030 C   0  0  0  0  0  0  0  0  0  0  0  0
   16.0420   -1.8670    2.7880 C   0  0  0  0  0  0  0  0  0  0  0  0
   16.1670   -0.9690    0.5280 O   0  0  0  0  0  0  0  0  0  0  0  0
   18.3530   -4.3200    7.4350 C   0  0  0  0  0  0  0  0  0  0  0  0
   18.6230   -5.7100    7.6090 C   0  0  0  0  0  0  0  0  0  0  0  0
   19.1740   -6.1960    8.8200 C   0  0  0  0  0  0  0  0  0  0  0  0
   19.4650   -5.2960    9.8810 C   0  0  0  0  0  0  0  0  0  0  0  0
   19.1980   -3.9080    9.7300 C   0  0  0  0  0  0  0  0  0  0  0  0
   18.6430   -3.4190    8.5170 C   0  0  0  0  0  0  0  0  0  0  0  0
  1  2  1  0
  1  4  1  0
  2  3  1  0
  3  5  1  0
  4  6  1  0
  4  7  1  0
  5  6  1  0
  7  8  1  0
  8  9  1  0
  9 10  1  0
 10 11  2  0
 10 15  1  0
 11 12  1  0
 12 13  2  0
 13 14  1  0
 16 13  1  1
 14 15  2  0
 16 17  1  0
 16 21  1  0
 17 18  1  0
 17 27  1  0
 18 19  1  0
 19 20  1  0
 20 21  2  0
 20 25  1  0
 21 22  1  0
 22 23  2  0
 23 24  1  0
 24 25  2  0
 24 26  1  0
 27 28  2  0
 27 32  1  0
 28 29  1  0
 29 30  2  0
 30 31  1  0
 31 32  2  0
M  END
$$$$
