
     RDKit          3D

 17 20  0  0  0  0  0  0  0  0999 V2000
   34.0960   45.5100   41.4530 C   0  0  0  0  0  0  0  0  0  0  0  0
   34.4360   45.3890   40.1090 C   0  0  0  0  0  0  0  0  0  0  0  0
   35.2250   44.3250   39.6900 C   0  0  0  0  0  0  0  0  0  0  0  0
   35.6690   43.3740   40.6210 C   0  0  0  0  0  0  0  0  0  0  0  0
   35.3240   43.4970   41.9640 C   0  0  0  0  0  0  0  0  0  0  0  0
   34.5380   44.5670   42.3790 C   0  0  0  0  0  0  0  0  0  0  0  0
   36.3490   43.1510   37.8830 C   0  0  0  0  0  0  0  0  0  0  0  0
   36.5760   43.2020   36.5360 C   0  0  0  0  0  0  0  0  0  0  0  0
   37.3500   42.2040   35.9510 C   0  0  0  0  0  0  0  0  0  0  0  0
   37.8750   41.1830   36.7550 C   0  0  0  0  0  0  0  0  0  0  0  0
   37.6280   41.1550   38.1320 C   0  0  0  0  0  0  0  0  0  0  0  0
   36.8510   42.1570   38.7020 C   0  0  0  0  0  0  0  0  0  0  0  0
   36.5190   42.2340   40.1530 C   0  0  0  0  0  0  0  0  0  0  0  0
   35.5810   44.1770   38.3520 C   0  0  0  0  0  0  0  0  0  0  0  0
   36.9360   41.3690   40.9480 O   0  0  0  0  0  0  0  0  0  0  0  0
   35.2930   44.9320   37.2640 N   0  0  0  0  0  0  0  0  0  0  0  0
   35.9160   44.3190   36.1350 N   0  0  0  0  0  0  0  0  0  0  0  0
  1  2  2  0
  1  6  1  0
  2  3  1  0
  3  4  2  0
  3 14  1  0
  4  5  1  0
  4 13  1  0
  5  6  2  0
  7  8  2  0
  7 12  1  0
  7 14  1  0
  8  9  1  0
  8 17  1  0
  9 10  2  0
 10 11  1  0
 11 12  2  0
 12 13  1  0
 13 15  2  0
 14 16  2  0
 16 17  1  0
M  END
$$$$
