
     RDKit          3D

 28 31  0  0  0  0  0  0  0  0999 V2000
   31.0850   48.7410   47.3230 C   0  0  0  0  0  0  0  0  0  0  0  0
   32.4120   47.4430   45.1110 N   0  0  0  0  0  0  0  0  0  0  0  0
   34.8960   45.5760   37.2900 O   0  0  0  0  0  0  0  0  0  0  0  0
   30.7670   49.1370   45.8780 C   0  0  0  0  0  0  0  0  0  0  0  0
   35.0420   44.5040   39.8080 N   0  0  0  0  0  0  0  0  0  0  0  0
   35.1590   42.8880   41.5170 O   0  0  0  0  0  0  0  0  0  0  0  0
   31.9370   48.8340   44.9510 C   0  0  0  0  0  0  0  0  0  0  0  0
   35.9280   43.7960   36.2520 N   0  0  0  0  0  0  0  0  0  0  0  0
   32.9700   46.6850   44.0180 C   0  0  0  0  0  0  0  0  0  0  0  0
   39.0010   38.1660   37.8220 N   0  0  0  0  0  0  0  0  0  0  0  0
   33.2740   47.2020   42.6980 C   0  0  0  0  0  0  0  0  0  0  0  0
   33.8310   46.3500   41.7050 C   0  0  0  0  0  0  0  0  0  0  0  0
   34.1010   44.9910   42.0230 C   0  0  0  0  0  0  0  0  0  0  0  0
   34.8150   44.0370   41.1170 C   0  0  0  0  0  0  0  0  0  0  0  0
   35.6870   43.8080   38.7500 C   0  0  0  0  0  0  0  0  0  0  0  0
   36.3360   42.5820   38.7960 C   0  0  0  0  0  0  0  0  0  0  0  0
   36.8060   41.9400   37.5620 C   0  0  0  0  0  0  0  0  0  0  0  0
   36.5760   42.5590   36.3170 C   0  0  0  0  0  0  0  0  0  0  0  0
   35.4720   44.4780   37.4260 C   0  0  0  0  0  0  0  0  0  0  0  0
   37.5710   40.6510   37.6630 C   0  0  0  0  0  0  0  0  0  0  0  0
   38.1470   40.2240   38.8990 C   0  0  0  0  0  0  0  0  0  0  0  0
   38.8480   38.9840   38.9290 C   0  0  0  0  0  0  0  0  0  0  0  0
   38.4420   38.5890   36.6350 C   0  0  0  0  0  0  0  0  0  0  0  0
   37.7240   39.8160   36.5200 C   0  0  0  0  0  0  0  0  0  0  0  0
   33.7840   44.4850   43.3050 C   0  0  0  0  0  0  0  0  0  0  0  0
   33.2350   45.3040   44.2800 C   0  0  0  0  0  0  0  0  0  0  0  0
   32.6920   46.9960   46.4950 C   0  0  0  0  0  0  0  0  0  0  0  0
   31.5200   47.2800   47.4190 C   0  0  0  0  0  0  0  0  0  0  0  0
  4  1  1  0
  4  7  1  0
  1 28  1  0
  7  2  1  0
 28 27  1  0
  2 27  1  0
  2  9  1  0
 11  9  2  0
 11 12  1  0
  9 26  1  0
 12 13  2  0
 26 25  2  0
 13 25  1  0
 13 14  1  0
  3 19  2  0
  5 14  1  0
  5 15  1  0
 14  6  2  0
 19 15  1  0
 19  8  1  0
 15 16  2  0
  8 18  1  0
 16 17  1  0
 18 17  2  0
 17 20  1  0
 20 24  2  0
 20 21  1  0
 24 23  1  0
 21 22  2  0
 23 10  2  0
 22 10  1  0
M  END
$$$$
