
     RDKit          3D

 28 31  0  0  0  0  0  0  0  0999 V2000
   31.0850   48.7410   47.3230 C   0  0  0  0  0  0  0  0  0  0  0  0
   32.4120   47.4430   45.1110 N   0  0  0  0  0  0  0  0  0  0  0  0
   34.8960   45.5760   37.2900 O   0  0  0  0  0  0  0  0  0  0  0  0
   30.7670   49.1370   45.8780 C   0  0  0  0  0  0  0  0  0  0  0  0
   35.0420   44.5040   39.8080 N   0  0  0  0  0  0  0  0  0  0  0  0
   35.1590   42.8880   41.5170 O   0  0  0  0  0  0  0  0  0  0  0  0
   31.9370   48.8340   44.9510 C   0  0  0  0  0  0  0  0  0  0  0  0
   35.9280   43.7960   36.2520 N   0  0  0  0  0  0  0  0  0  0  0  0
   32.9700   46.6850   44.0180 C   0  0  0  0  0  0  0  0  0  0  0  0
   39.0010   38.1660   37.8220 N   0  0  0  0  0  0  0  0  0  0  0  0
   33.2740   47.2020   42.6980 C   0  0  0  0  0  0  0  0  0  0  0  0
   33.8310   46.3500   41.7050 C   0  0  0  0  0  0  0  0  0  0  0  0
   34.1010   44.9910   42.0230 C   0  0  0  0  0  0  0  0  0  0  0  0
   34.8150   44.0370   41.1170 C   0  0  0  0  0  0  0  0  0  0  0  0
   35.6870   43.8080   38.7500 C   0  0  0  0  0  0  0  0  0  0  0  0
   36.3360   42.5820   38.7960 C   0  0  0  0  0  0  0  0  0  0  0  0
   36.8060   41.9400   37.5620 C   0  0  0  0  0  0  0  0  0  0  0  0
   36.5760   42.5590   36.3170 C   0  0  0  0  0  0  0  0  0  0  0  0
   35.4720   44.4780   37.4260 C   0  0  0  0  0  0  0  0  0  0  0  0
   37.5710   40.6510   37.6630 C   0  0  0  0  0  0  0  0  0  0  0  0
   38.1470   40.2240   38.8990 C   0  0  0  0  0  0  0  0  0  0  0  0
   38.8480   38.9840   38.9290 C   0  0  0  0  0  0  0  0  0  0  0  0
   38.4420   38.5890   36.6350 C   0  0  0  0  0  0  0  0  0  0  0  0
   37.7240   39.8160   36.5200 C   0  0  0  0  0  0  0  0  0  0  0  0
   33.7840   44.4850   43.3050 C   0  0  0  0  0  0  0  0  0  0  0  0
   33.2350   45.3040   44.2800 C   0  0  0  0  0  0  0  0  0  0  0  0
   32.6920   46.9960   46.4950 C   0  0  0  0  0  0  0  0  0  0  0  0
   31.5200   47.2800   47.4190 C   0  0  0  0  0  0  0  0  0  0  0  0
  4  1  1  0
  4  7  1  0
  1 28  1  0
  7  2  1  0
 28 27  1  0
  2 27  1  0
  2  9  1  0
 11  9  2  0
 11 12  1  0
  9 26  1  0
 12 13  2  0
 26 25  2  0
 13 25  1  0
 13 14  1  0
  3 19  2  0
  5 14  1  0
  5 15  1  0
 14  6  2  0
 19 15  1  0
 19  8  1  0
 15 16  2  0
  8 18  1  0
 16 17  1  0
 18 17  2  0
 17 20  1  0
 20 24  2  0
 20 21  1  0
 24 23  1  0
 21 22  2  0
 23 10  2  0
 22 10  1  0
M  END
$$$$

     RDKit          3D

 35 42  0  0  0  0  0  0  0  0999 V2000
   37.6460   42.8920   43.2240 O   0  0  0  0  0  0  0  0  0  0  0  0
   36.4070   43.5200   43.4010 C   0  0  2  0  0  0  0  0  0  0  0  0
   35.4030   42.7350   44.2460 C   0  0  0  0  0  0  0  0  0  0  0  0
   36.0730   41.4330   44.7250 C   0  0  2  0  0  0  0  0  0  0  0  0
   36.6780   40.6460   43.5290 C   0  0  2  0  0  0  0  0  0  0  0  0
   37.6560   41.5710   42.7700 C   0  0  2  0  0  0  0  0  0  0  0  0
   39.0520   41.1310   43.2150 C   0  0  0  0  0  0  0  0  0  0  0  0
   37.6220   41.4900   41.3000 N   0  0  0  0  0  0  0  0  0  0  0  0
   36.9560   42.4350   40.5190 C   0  0  0  0  0  0  0  0  0  0  0  0
   36.2100   43.5710   40.8890 C   0  0  0  0  0  0  0  0  0  0  0  0
   35.6150   44.3770   39.9080 C   0  0  0  0  0  0  0  0  0  0  0  0
   35.7770   44.0240   38.5380 C   0  0  0  0  0  0  0  0  0  0  0  0
   36.5130   42.8910   38.1880 C   0  0  0  0  0  0  0  0  0  0  0  0
   37.0960   42.1050   39.1620 C   0  0  0  0  0  0  0  0  0  0  0  0
   37.9010   40.8980   39.1080 C   0  0  0  0  0  0  0  0  0  0  0  0
   38.2030   40.5510   40.4510 C   0  0  0  0  0  0  0  0  0  0  0  0
   38.9790   39.4070   40.6890 C   0  0  0  0  0  0  0  0  0  0  0  0
   39.4120   38.6700   39.5900 C   0  0  0  0  0  0  0  0  0  0  0  0
   39.1020   39.0270   38.2860 C   0  0  0  0  0  0  0  0  0  0  0  0
   38.3400   40.1490   38.0120 C   0  0  0  0  0  0  0  0  0  0  0  0
   36.5050   42.7770   36.6880 C   0  0  0  0  0  0  0  0  0  0  0  0
   35.7210   43.9190   36.2250 N   0  0  0  0  0  0  0  0  0  0  0  0
   35.3050   44.6290   37.2890 C   0  0  0  0  0  0  0  0  0  0  0  0
   34.6280   45.6280   37.2220 O   0  0  0  0  0  0  0  0  0  0  0  0
   34.9320   45.4510   40.6400 C   0  0  0  0  0  0  0  0  0  0  0  0
   35.1650   45.2200   42.0220 C   0  0  0  0  0  0  0  0  0  0  0  0
   34.6460   46.0770   42.9970 C   0  0  0  0  0  0  0  0  0  0  0  0
   33.9010   47.1610   42.5580 C   0  0  0  0  0  0  0  0  0  0  0  0
   33.6720   47.3900   41.2090 C   0  0  0  0  0  0  0  0  0  0  0  0
   34.1760   46.5520   40.2240 C   0  0  0  0  0  0  0  0  0  0  0  0
   35.9310   44.0610   42.1260 N   0  0  0  0  0  0  0  0  0  0  0  0
   35.6400   40.0220   42.7260 O   0  0  0  0  0  0  0  0  0  0  0  0
   34.8060   40.9110   41.9750 C   0  0  0  0  0  0  0  0  0  0  0  0
   35.1200   40.5790   45.4530 N   0  0  0  0  0  0  0  0  0  0  0  0
   35.6260   39.4880   46.2970 C   0  0  0  0  0  0  0  0  0  0  0  0
  1  2  1  0
  1  6  1  0
  2  3  1  6
  2 31  1  0
  3  4  1  0
  4  5  1  0
  4 34  1  6
  5  6  1  0
  5 32  1  6
  6  7  1  1
  6  8  1  0
  8  9  1  0
  8 16  1  0
  9 10  2  0
  9 14  1  0
 10 11  1  0
 10 31  1  0
 11 12  2  0
 11 25  1  0
 12 13  1  0
 12 23  1  0
 13 14  2  0
 13 21  1  0
 14 15  1  0
 15 16  2  0
 15 20  1  0
 16 17  1  0
 17 18  2  0
 18 19  1  0
 19 20  2  0
 21 22  1  0
 22 23  1  0
 23 24  2  0
 25 26  2  0
 25 30  1  0
 26 27  1  0
 26 31  1  0
 27 28  2  0
 28 29  1  0
 29 30  2  0
 32 33  1  0
 34 35  1  0
M  END
$$$$

     RDKit          3D

 17 20  0  0  0  0  0  0  0  0999 V2000
   34.0960   45.5100   41.4530 C   0  0  0  0  0  0  0  0  0  0  0  0
   34.4360   45.3890   40.1090 C   0  0  0  0  0  0  0  0  0  0  0  0
   35.2250   44.3250   39.6900 C   0  0  0  0  0  0  0  0  0  0  0  0
   35.6690   43.3740   40.6210 C   0  0  0  0  0  0  0  0  0  0  0  0
   35.3240   43.4970   41.9640 C   0  0  0  0  0  0  0  0  0  0  0  0
   34.5380   44.5670   42.3790 C   0  0  0  0  0  0  0  0  0  0  0  0
   36.3490   43.1510   37.8830 C   0  0  0  0  0  0  0  0  0  0  0  0
   36.5760   43.2020   36.5360 C   0  0  0  0  0  0  0  0  0  0  0  0
   37.3500   42.2040   35.9510 C   0  0  0  0  0  0  0  0  0  0  0  0
   37.8750   41.1830   36.7550 C   0  0  0  0  0  0  0  0  0  0  0  0
   37.6280   41.1550   38.1320 C   0  0  0  0  0  0  0  0  0  0  0  0
   36.8510   42.1570   38.7020 C   0  0  0  0  0  0  0  0  0  0  0  0
   36.5190   42.2340   40.1530 C   0  0  0  0  0  0  0  0  0  0  0  0
   35.5810   44.1770   38.3520 C   0  0  0  0  0  0  0  0  0  0  0  0
   36.9360   41.3690   40.9480 O   0  0  0  0  0  0  0  0  0  0  0  0
   35.2930   44.9320   37.2640 N   0  0  0  0  0  0  0  0  0  0  0  0
   35.9160   44.3190   36.1350 N   0  0  0  0  0  0  0  0  0  0  0  0
  1  2  2  0
  1  6  1  0
  2  3  1  0
  3  4  2  0
  3 14  1  0
  4  5  1  0
  4 13  1  0
  5  6  2  0
  7  8  2  0
  7 12  1  0
  7 14  1  0
  8  9  1  0
  8 17  1  0
  9 10  2  0
 10 11  1  0
 11 12  2  0
 12 13  1  0
 13 15  2  0
 14 16  2  0
 16 17  1  0
M  END
$$$$

     RDKit          3D

 16 18  0  0  0  0  0  0  0  0999 V2000
   33.5410   48.7970   41.4520 C   0  0  0  0  0  0  0  0  0  0  0  0
   34.5320   48.6930   40.2850 C   0  0  0  0  0  0  0  0  0  0  0  0
   34.2090   47.4600   41.1310 C   0  0  0  0  0  0  0  0  0  0  0  0
   33.2930   46.4340   40.4620 C   0  0  0  0  0  0  0  0  0  0  0  0
   34.0960   45.5640   39.5920 N   0  0  0  0  0  0  0  0  0  0  0  0
   34.6650   44.4390   40.0380 C   0  0  0  0  0  0  0  0  0  0  0  0
   35.4700   43.6450   39.2120 C   0  0  0  0  0  0  0  0  0  0  0  0
   35.7150   43.9660   37.8710 C   0  0  0  0  0  0  0  0  0  0  0  0
   36.5160   43.1340   37.0850 C   0  0  0  0  0  0  0  0  0  0  0  0
   37.0760   41.9840   37.6520 C   0  0  0  0  0  0  0  0  0  0  0  0
   38.0850   40.9380   36.7330 Cl  0  0  0  0  0  0  0  0  0  0  0  0
   36.8350   41.6630   38.9870 C   0  0  0  0  0  0  0  0  0  0  0  0
   36.0320   42.4880   39.7700 C   0  0  0  0  0  0  0  0  0  0  0  0
   35.7980   42.1700   41.0530 N   0  0  0  0  0  0  0  0  0  0  0  0
   35.0350   42.9500   41.7980 C   0  0  0  0  0  0  0  0  0  0  0  0
   34.4780   44.0550   41.3150 N   0  0  0  0  0  0  0  0  0  0  0  0
  3  1  1  0
  2  1  1  0
  3  2  1  0
  4  3  1  0
  5  4  1  0
  6  5  1  0
  7  6  1  0
 16  6  2  0
 13  7  1  0
  7  8  2  0
  9  8  1  0
 10  9  2  0
 11 10  1  0
 12 10  1  0
 12 13  2  0
 14 13  1  0
 14 15  2  0
 15 16  1  0
M  END
$$$$
