
 OpenBabel02212407153D

 50 53  0  0  0  0  0  0  0  0999 V2000
   31.0850   48.7410   47.3230 C   0  0  0  0  0  0  0  0  0  0  0  0
   32.4120   47.4430   45.1110 N   0  0  0  0  0  0  0  0  0  0  0  0
   34.8960   45.5760   37.2900 O   0  0  0  0  0  0  0  0  0  0  0  0
   30.7670   49.1370   45.8780 C   0  0  0  0  0  0  0  0  0  0  0  0
   35.0420   44.5040   39.8080 N   0  0  0  0  0  0  0  0  0  0  0  0
   35.1590   42.8880   41.5170 O   0  0  0  0  0  0  0  0  0  0  0  0
   31.9370   48.8340   44.9510 C   0  0  0  0  0  0  0  0  0  0  0  0
   35.9280   43.7960   36.2520 N   0  0  0  0  0  0  0  0  0  0  0  0
   32.9700   46.6850   44.0180 C   0  0  0  0  0  0  0  0  0  0  0  0
   39.0010   38.1660   37.8220 N   0  0  0  0  0  0  0  0  0  0  0  0
   33.2740   47.2020   42.6980 C   0  0  0  0  0  0  0  0  0  0  0  0
   33.8310   46.3500   41.7050 C   0  0  0  0  0  0  0  0  0  0  0  0
   34.1010   44.9910   42.0230 C   0  0  0  0  0  0  0  0  0  0  0  0
   34.8150   44.0370   41.1170 C   0  0  0  0  0  0  0  0  0  0  0  0
   35.6870   43.8080   38.7500 C   0  0  0  0  0  0  0  0  0  0  0  0
   36.3360   42.5820   38.7960 C   0  0  0  0  0  0  0  0  0  0  0  0
   36.8060   41.9400   37.5620 C   0  0  0  0  0  0  0  0  0  0  0  0
   36.5760   42.5590   36.3170 C   0  0  0  0  0  0  0  0  0  0  0  0
   35.4720   44.4780   37.4260 C   0  0  0  0  0  0  0  0  0  0  0  0
   37.5710   40.6510   37.6630 C   0  0  0  0  0  0  0  0  0  0  0  0
   38.1470   40.2240   38.8990 C   0  0  0  0  0  0  0  0  0  0  0  0
   38.8480   38.9840   38.9290 C   0  0  0  0  0  0  0  0  0  0  0  0
   38.4420   38.5890   36.6350 C   0  0  0  0  0  0  0  0  0  0  0  0
   37.7240   39.8160   36.5200 C   0  0  0  0  0  0  0  0  0  0  0  0
   33.7840   44.4850   43.3050 C   0  0  0  0  0  0  0  0  0  0  0  0
   33.2350   45.3040   44.2800 C   0  0  0  0  0  0  0  0  0  0  0  0
   32.6920   46.9960   46.4950 C   0  0  0  0  0  0  0  0  0  0  0  0
   31.5200   47.2800   47.4190 C   0  0  0  0  0  0  0  0  0  0  0  0
   30.2108   48.8839   47.9233 H   0  0  0  0  0  0  0  0  0  0  0  0
   31.8895   49.3549   47.6705 H   0  0  0  0  0  0  0  0  0  0  0  0
   30.5564   50.1855   45.8422 H   0  0  0  0  0  0  0  0  0  0  0  0
   29.9210   48.5696   45.5507 H   0  0  0  0  0  0  0  0  0  0  0  0
   34.7188   45.4112   39.6036 H   0  0  0  0  0  0  0  0  0  0  0  0
   32.7408   49.5035   45.1761 H   0  0  0  0  0  0  0  0  0  0  0  0
   31.6057   48.9605   43.9415 H   0  0  0  0  0  0  0  0  0  0  0  0
   35.7805   44.2114   35.3717 H   0  0  0  0  0  0  0  0  0  0  0  0
   33.0854   48.1925   42.4781 H   0  0  0  0  0  0  0  0  0  0  0  0
   34.0374   46.7150   40.7620 H   0  0  0  0  0  0  0  0  0  0  0  0
   36.4895   42.1179   39.7049 H   0  0  0  0  0  0  0  0  0  0  0  0
   36.8876   42.0966   35.4486 H   0  0  0  0  0  0  0  0  0  0  0  0
   38.0573   40.8005   39.7503 H   0  0  0  0  0  0  0  0  0  0  0  0
   39.2638   38.6792   39.8230 H   0  0  0  0  0  0  0  0  0  0  0  0
   38.5471   37.9951   35.7976 H   0  0  0  0  0  0  0  0  0  0  0  0
   37.3179   40.0969   35.6138 H   0  0  0  0  0  0  0  0  0  0  0  0
   33.9640   43.4914   43.5181 H   0  0  0  0  0  0  0  0  0  0  0  0
   33.0143   44.9113   45.2085 H   0  0  0  0  0  0  0  0  0  0  0  0
   32.8826   45.9431   46.4886 H   0  0  0  0  0  0  0  0  0  0  0  0
   33.5430   47.5347   46.8564 H   0  0  0  0  0  0  0  0  0  0  0  0
   30.6984   46.6520   47.1443 H   0  0  0  0  0  0  0  0  0  0  0  0
   31.8250   47.0818   48.4253 H   0  0  0  0  0  0  0  0  0  0  0  0
  1 28  1  0  0  0  0
  1 29  1  0  0  0  0
  1 30  1  0  0  0  0
  2 27  1  0  0  0  0
  2  9  1  0  0  0  0
  3 19  2  0  0  0  0
  4  1  1  0  0  0  0
  4  7  1  0  0  0  0
  4 31  1  0  0  0  0
  4 32  1  0  0  0  0
  5 14  1  0  0  0  0
  5 15  1  0  0  0  0
  5 33  1  0  0  0  0
  7  2  1  0  0  0  0
  7 34  1  0  0  0  0
  7 35  1  0  0  0  0
  8 18  1  0  0  0  0
  8 36  1  0  0  0  0
  9 26  1  0  0  0  0
 11  9  2  0  0  0  0
 11 12  1  0  0  0  0
 11 37  1  0  0  0  0
 12 13  2  0  0  0  0
 12 38  1  0  0  0  0
 13 25  1  0  0  0  0
 13 14  1  0  0  0  0
 14  6  2  0  0  0  0
 15 16  2  0  0  0  0
 16 17  1  0  0  0  0
 16 39  1  0  0  0  0
 17 20  1  0  0  0  0
 18 17  2  0  0  0  0
 18 40  1  0  0  0  0
 19 15  1  0  0  0  0
 19  8  1  0  0  0  0
 20 24  2  0  0  0  0
 20 21  1  0  0  0  0
 21 22  2  0  0  0  0
 21 41  1  0  0  0  0
 22 10  1  0  0  0  0
 22 42  1  0  0  0  0
 23 10  2  0  0  0  0
 23 43  1  0  0  0  0
 24 23  1  0  0  0  0
 24 44  1  0  0  0  0
 25 45  1  0  0  0  0
 26 25  2  0  0  0  0
 26 46  1  0  0  0  0
 27 47  1  0  0  0  0
 27 48  1  0  0  0  0
 28 27  1  0  0  0  0
 28 49  1  0  0  0  0
 28 50  1  0  0  0  0
M  END
$$$$

 OpenBabel02212407153D

 62 69  0  0  0  0  0  0  0  0999 V2000
   37.6460   42.8920   43.2240 O   0  0  0  0  0  0  0  0  0  0  0  0
   36.4070   43.5200   43.4010 C   0  0  2  0  0  0  0  0  0  0  0  0
   35.4030   42.7350   44.2460 C   0  0  0  0  0  0  0  0  0  0  0  0
   36.0730   41.4330   44.7250 C   0  0  2  0  0  0  0  0  0  0  0  0
   36.6780   40.6460   43.5290 C   0  0  2  0  0  0  0  0  0  0  0  0
   37.6560   41.5710   42.7700 C   0  0  2  0  0  0  0  0  0  0  0  0
   39.0520   41.1310   43.2150 C   0  0  0  0  0  0  0  0  0  0  0  0
   37.6220   41.4900   41.3000 N   0  0  0  0  0  0  0  0  0  0  0  0
   36.9560   42.4350   40.5190 C   0  0  0  0  0  0  0  0  0  0  0  0
   36.2100   43.5710   40.8890 C   0  0  0  0  0  0  0  0  0  0  0  0
   35.6150   44.3770   39.9080 C   0  0  0  0  0  0  0  0  0  0  0  0
   35.7770   44.0240   38.5380 C   0  0  0  0  0  0  0  0  0  0  0  0
   36.5130   42.8910   38.1880 C   0  0  0  0  0  0  0  0  0  0  0  0
   37.0960   42.1050   39.1620 C   0  0  0  0  0  0  0  0  0  0  0  0
   37.9010   40.8980   39.1080 C   0  0  0  0  0  0  0  0  0  0  0  0
   38.2030   40.5510   40.4510 C   0  0  0  0  0  0  0  0  0  0  0  0
   38.9790   39.4070   40.6890 C   0  0  0  0  0  0  0  0  0  0  0  0
   39.4120   38.6700   39.5900 C   0  0  0  0  0  0  0  0  0  0  0  0
   39.1020   39.0270   38.2860 C   0  0  0  0  0  0  0  0  0  0  0  0
   38.3400   40.1490   38.0120 C   0  0  0  0  0  0  0  0  0  0  0  0
   36.5050   42.7770   36.6880 C   0  0  0  0  0  0  0  0  0  0  0  0
   35.7210   43.9190   36.2250 N   0  0  0  0  0  0  0  0  0  0  0  0
   35.3050   44.6290   37.2890 C   0  0  0  0  0  0  0  0  0  0  0  0
   34.6280   45.6280   37.2220 O   0  0  0  0  0  0  0  0  0  0  0  0
   34.9320   45.4510   40.6400 C   0  0  0  0  0  0  0  0  0  0  0  0
   35.1650   45.2200   42.0220 C   0  0  0  0  0  0  0  0  0  0  0  0
   34.6460   46.0770   42.9970 C   0  0  0  0  0  0  0  0  0  0  0  0
   33.9010   47.1610   42.5580 C   0  0  0  0  0  0  0  0  0  0  0  0
   33.6720   47.3900   41.2090 C   0  0  0  0  0  0  0  0  0  0  0  0
   34.1760   46.5520   40.2240 C   0  0  0  0  0  0  0  0  0  0  0  0
   35.9310   44.0610   42.1260 N   0  0  0  0  0  0  0  0  0  0  0  0
   35.6400   40.0220   42.7260 O   0  0  0  0  0  0  0  0  0  0  0  0
   34.8060   40.9110   41.9750 C   0  0  0  0  0  0  0  0  0  0  0  0
   35.1200   40.5790   45.4530 N   0  3  0  0  0  0  0  0  0  0  0  0
   35.6260   39.4880   46.2970 C   0  0  0  0  0  0  0  0  0  0  0  0
   36.5457   44.3687   44.0376 H   0  0  0  0  0  0  0  0  0  0  0  0
   34.5413   42.5009   43.6565 H   0  0  0  0  0  0  0  0  0  0  0  0
   35.0988   43.3202   45.0886 H   0  0  0  0  0  0  0  0  0  0  0  0
   36.8626   41.7080   45.3927 H   0  0  0  0  0  0  0  0  0  0  0  0
   37.2584   39.8131   43.8672 H   0  0  0  0  0  0  0  0  0  0  0  0
   39.1170   41.1763   44.2821 H   0  0  0  0  0  0  0  0  0  0  0  0
   39.7849   41.7814   42.7851 H   0  0  0  0  0  0  0  0  0  0  0  0
   39.2305   40.1276   42.8891 H   0  0  0  0  0  0  0  0  0  0  0  0
   39.2218   39.1201   41.6501 H   0  0  0  0  0  0  0  0  0  0  0  0
   39.9848   37.8269   39.7516 H   0  0  0  0  0  0  0  0  0  0  0  0
   39.4459   38.4453   37.5060 H   0  0  0  0  0  0  0  0  0  0  0  0
   38.1066   40.4203   37.0440 H   0  0  0  0  0  0  0  0  0  0  0  0
   36.0478   41.8589   36.3833 H   0  0  0  0  0  0  0  0  0  0  0  0
   37.4942   42.7774   36.2801 H   0  0  0  0  0  0  0  0  0  0  0  0
   35.5278   44.1347   35.2841 H   0  0  0  0  0  0  0  0  0  0  0  0
   34.8105   45.9098   44.0020 H   0  0  0  0  0  0  0  0  0  0  0  0
   33.5067   47.8143   43.2528 H   0  0  0  0  0  0  0  0  0  0  0  0
   33.1095   48.2088   40.9292 H   0  0  0  0  0  0  0  0  0  0  0  0
   33.9998   46.7341   39.2236 H   0  0  0  0  0  0  0  0  0  0  0  0
   34.0835   40.3439   41.4261 H   0  0  0  0  0  0  0  0  0  0  0  0
   35.4084   41.4754   41.2942 H   0  0  0  0  0  0  0  0  0  0  0  0
   34.3029   41.5781   42.6434 H   0  0  0  0  0  0  0  0  0  0  0  0
   34.5082   40.1553   44.7554 H   0  0  0  0  0  0  0  0  0  0  0  0
   34.6870   41.2175   46.1203 H   0  0  0  0  0  0  0  0  0  0  0  0
   36.1054   38.7547   45.6826 H   0  0  0  0  0  0  0  0  0  0  0  0
   34.8107   39.0356   46.8219 H   0  0  0  0  0  0  0  0  0  0  0  0
   36.3304   39.8791   47.0011 H   0  0  0  0  0  0  0  0  0  0  0  0
  1  2  1  0  0  0  0
  1  6  1  0  0  0  0
  2  3  1  0  0  0  0
  2 31  1  0  0  0  0
  2 36  1  1  0  0  0
  3  4  1  0  0  0  0
  3 37  1  0  0  0  0
  3 38  1  0  0  0  0
  4  5  1  0  0  0  0
  4 34  1  0  0  0  0
  4 39  1  1  0  0  0
  5  6  1  0  0  0  0
  5 32  1  0  0  0  0
  5 40  1  1  0  0  0
  6  7  1  1  0  0  0
  6  8  1  0  0  0  0
  7 41  1  0  0  0  0
  7 42  1  0  0  0  0
  7 43  1  0  0  0  0
  8  9  1  0  0  0  0
  8 16  1  0  0  0  0
  9 10  2  0  0  0  0
  9 14  1  0  0  0  0
 10 11  1  0  0  0  0
 10 31  1  0  0  0  0
 11 12  2  0  0  0  0
 11 25  1  0  0  0  0
 12 13  1  0  0  0  0
 12 23  1  0  0  0  0
 13 14  2  0  0  0  0
 13 21  1  0  0  0  0
 14 15  1  0  0  0  0
 15 16  2  0  0  0  0
 15 20  1  0  0  0  0
 16 17  1  0  0  0  0
 17 18  2  0  0  0  0
 17 44  1  0  0  0  0
 18 19  1  0  0  0  0
 18 45  1  0  0  0  0
 19 20  2  0  0  0  0
 19 46  1  0  0  0  0
 20 47  1  0  0  0  0
 21 22  1  0  0  0  0
 21 48  1  0  0  0  0
 21 49  1  0  0  0  0
 22 23  1  0  0  0  0
 22 50  1  0  0  0  0
 23 24  2  0  0  0  0
 25 26  2  0  0  0  0
 25 30  1  0  0  0  0
 26 27  1  0  0  0  0
 26 31  1  0  0  0  0
 27 28  2  0  0  0  0
 27 51  1  0  0  0  0
 28 29  1  0  0  0  0
 28 52  1  0  0  0  0
 29 30  2  0  0  0  0
 29 53  1  0  0  0  0
 30 54  1  0  0  0  0
 32 33  1  0  0  0  0
 33 55  1  0  0  0  0
 33 56  1  0  0  0  0
 33 57  1  0  0  0  0
 34 35  1  0  0  0  0
 34 58  1  0  0  0  0
 34 59  1  0  0  0  0
 35 60  1  0  0  0  0
 35 61  1  0  0  0  0
 35 62  1  0  0  0  0
M  CHG  1  34   1
M  END
$$$$

 OpenBabel02212407153D

 25 28  0  0  0  0  0  0  0  0999 V2000
   34.0960   45.5100   41.4530 C   0  0  0  0  0  0  0  0  0  0  0  0
   34.4360   45.3890   40.1090 C   0  0  0  0  0  0  0  0  0  0  0  0
   35.2250   44.3250   39.6900 C   0  0  0  0  0  0  0  0  0  0  0  0
   35.6690   43.3740   40.6210 C   0  0  0  0  0  0  0  0  0  0  0  0
   35.3240   43.4970   41.9640 C   0  0  0  0  0  0  0  0  0  0  0  0
   34.5380   44.5670   42.3790 C   0  0  0  0  0  0  0  0  0  0  0  0
   36.3490   43.1510   37.8830 C   0  0  0  0  0  0  0  0  0  0  0  0
   36.5760   43.2020   36.5360 C   0  0  0  0  0  0  0  0  0  0  0  0
   37.3500   42.2040   35.9510 C   0  0  0  0  0  0  0  0  0  0  0  0
   37.8750   41.1830   36.7550 C   0  0  0  0  0  0  0  0  0  0  0  0
   37.6280   41.1550   38.1320 C   0  0  0  0  0  0  0  0  0  0  0  0
   36.8510   42.1570   38.7020 C   0  0  0  0  0  0  0  0  0  0  0  0
   36.5190   42.2340   40.1530 C   0  0  0  0  0  0  0  0  0  0  0  0
   35.5810   44.1770   38.3520 C   0  0  0  0  0  0  0  0  0  0  0  0
   36.9360   41.3690   40.9480 O   0  0  0  0  0  0  0  0  0  0  0  0
   35.2930   44.9320   37.2640 N   0  0  0  0  0  0  0  0  0  0  0  0
   35.9160   44.3190   36.1350 N   0  0  0  0  0  0  0  0  0  0  0  0
   33.5134   46.3024   41.7657 H   0  0  0  0  0  0  0  0  0  0  0  0
   34.1032   46.0873   39.4259 H   0  0  0  0  0  0  0  0  0  0  0  0
   35.6500   42.7973   42.6489 H   0  0  0  0  0  0  0  0  0  0  0  0
   34.2818   44.6627   43.3741 H   0  0  0  0  0  0  0  0  0  0  0  0
   37.5354   42.2157   34.9359 H   0  0  0  0  0  0  0  0  0  0  0  0
   38.4512   40.4422   36.3258 H   0  0  0  0  0  0  0  0  0  0  0  0
   38.0179   40.3997   38.7173 H   0  0  0  0  0  0  0  0  0  0  0  0
   35.8737   44.6538   35.2102 H   0  0  0  0  0  0  0  0  0  0  0  0
  1  2  2  0  0  0  0
  1  6  1  0  0  0  0
  1 18  1  0  0  0  0
  2  3  1  0  0  0  0
  2 19  1  0  0  0  0
  3  4  2  0  0  0  0
  3 14  1  0  0  0  0
  4  5  1  0  0  0  0
  4 13  1  0  0  0  0
  5  6  2  0  0  0  0
  5 20  1  0  0  0  0
  6 21  1  0  0  0  0
  7  8  2  0  0  0  0
  7 12  1  0  0  0  0
  7 14  1  0  0  0  0
  8  9  1  0  0  0  0
  8 17  1  0  0  0  0
  9 10  2  0  0  0  0
  9 22  1  0  0  0  0
 10 11  1  0  0  0  0
 10 23  1  0  0  0  0
 11 12  2  0  0  0  0
 11 24  1  0  0  0  0
 12 13  1  0  0  0  0
 13 15  2  0  0  0  0
 14 16  2  0  0  0  0
 16 17  1  0  0  0  0
 17 25  1  0  0  0  0
M  END
$$$$

 OpenBabel02212407153D

 28 30  0  0  0  0  0  0  0  0999 V2000
   33.5410   48.7970   41.4520 C   0  0  0  0  0  0  0  0  0  0  0  0
   34.5320   48.6930   40.2850 C   0  0  0  0  0  0  0  0  0  0  0  0
   34.2090   47.4600   41.1310 C   0  0  0  0  0  0  0  0  0  0  0  0
   33.2930   46.4340   40.4620 C   0  0  0  0  0  0  0  0  0  0  0  0
   34.0960   45.5640   39.5920 N   0  0  0  0  0  0  0  0  0  0  0  0
   34.6650   44.4390   40.0380 C   0  0  0  0  0  0  0  0  0  0  0  0
   35.4700   43.6450   39.2120 C   0  0  0  0  0  0  0  0  0  0  0  0
   35.7150   43.9660   37.8710 C   0  0  0  0  0  0  0  0  0  0  0  0
   36.5160   43.1340   37.0850 C   0  0  0  0  0  0  0  0  0  0  0  0
   37.0760   41.9840   37.6520 C   0  0  0  0  0  0  0  0  0  0  0  0
   38.0850   40.9380   36.7330 Cl  0  0  0  0  0  0  0  0  0  0  0  0
   36.8350   41.6630   38.9870 C   0  0  0  0  0  0  0  0  0  0  0  0
   36.0320   42.4880   39.7700 C   0  0  0  0  0  0  0  0  0  0  0  0
   35.7980   42.1700   41.0530 N   0  0  0  0  0  0  0  0  0  0  0  0
   35.0350   42.9500   41.7980 C   0  0  0  0  0  0  0  0  0  0  0  0
   34.4780   44.0550   41.3150 N   0  0  0  0  0  0  0  0  0  0  0  0
   33.8121   49.3316   42.3383 H   0  0  0  0  0  0  0  0  0  0  0  0
   32.5305   49.1319   41.5595 H   0  0  0  0  0  0  0  0  0  0  0  0
   35.4946   49.1547   40.3572 H   0  0  0  0  0  0  0  0  0  0  0  0
   34.4998   48.9249   39.2409 H   0  0  0  0  0  0  0  0  0  0  0  0
   34.7898   46.7489   41.6806 H   0  0  0  0  0  0  0  0  0  0  0  0
   32.5543   46.9413   39.8772 H   0  0  0  0  0  0  0  0  0  0  0  0
   32.8071   45.8438   41.2107 H   0  0  0  0  0  0  0  0  0  0  0  0
   34.2193   45.8178   38.6488 H   0  0  0  0  0  0  0  0  0  0  0  0
   35.3028   44.8193   37.4624 H   0  0  0  0  0  0  0  0  0  0  0  0
   36.6931   43.3655   36.0950 H   0  0  0  0  0  0  0  0  0  0  0  0
   37.2525   40.8123   39.3957 H   0  0  0  0  0  0  0  0  0  0  0  0
   34.8669   42.6934   42.7834 H   0  0  0  0  0  0  0  0  0  0  0  0
  1 17  1  0  0  0  0
  1 18  1  0  0  0  0
  2  1  1  0  0  0  0
  2 19  1  0  0  0  0
  2 20  1  0  0  0  0
  3  1  1  0  0  0  0
  3  2  1  0  0  0  0
  3 21  1  0  0  0  0
  4  3  1  0  0  0  0
  4 22  1  0  0  0  0
  4 23  1  0  0  0  0
  5  4  1  0  0  0  0
  5 24  1  0  0  0  0
  6  5  1  0  0  0  0
  7  6  1  0  0  0  0
  7  8  2  0  0  0  0
  8 25  1  0  0  0  0
  9  8  1  0  0  0  0
  9 26  1  0  0  0  0
 10  9  2  0  0  0  0
 11 10  1  0  0  0  0
 12 10  1  0  0  0  0
 12 13  2  0  0  0  0
 12 27  1  0  0  0  0
 13  7  1  0  0  0  0
 14 13  1  0  0  0  0
 14 15  2  0  0  0  0
 15 16  1  0  0  0  0
 15 28  1  0  0  0  0
 16  6  2  0  0  0  0
M  END
$$$$
