
     RDKit          3D

 30 33  0  0  0  0  0  0  0  0999 V2000
   28.6370   14.9420   12.6730 C   0  0  0  0  0  0  0  0  0  0  0  0
   37.6610   10.4430   14.7000 C   0  0  0  0  0  0  0  0  0  0  0  0
   29.7340   15.5950   13.2810 C   0  0  0  0  0  0  0  0  0  0  0  0
   30.4220   14.9630   14.3160 C   0  0  0  0  0  0  0  0  0  0  0  0
   34.9080   13.1810   16.4400 C   0  0  0  0  0  0  0  0  0  0  0  0
   30.0630   13.6970   14.8030 C   0  0  0  0  0  0  0  0  0  0  0  0
   30.7950   13.0210   15.9030 C   0  0  0  0  0  0  0  0  0  0  0  0
   32.6180   13.0900   17.5330 C   0  0  0  0  0  0  0  0  0  0  0  0
   33.7650   12.2420   16.9920 C   0  0  0  0  0  0  0  0  0  0  0  0
   36.8980   11.7700   16.5880 C   0  0  0  0  0  0  0  0  0  0  0  0
   38.1220   11.3800   15.7930 C   0  0  0  0  0  0  0  0  0  0  0  0
   31.8270   13.6740   16.4520 N   0  0  0  0  0  0  0  0  0  0  0  0
   35.8750   12.3890   15.7380 N   0  0  0  0  0  0  0  0  0  0  0  0
   28.2710   13.7040   13.1700 C   0  0  0  0  0  0  0  0  0  0  0  0
   28.5400   11.7800   14.5920 N   0  0  0  0  0  0  0  0  0  0  0  0
   25.6770   11.3240   12.5450 O   0  0  0  0  0  0  0  0  0  0  0  0
   26.6070   11.8960   13.1170 C   0  0  0  0  0  0  0  0  0  0  0  0
   27.1980   12.9770   12.5470 N   0  0  0  0  0  0  0  0  0  0  0  0
   28.9600   13.0590   14.2260 C   0  0  0  0  0  0  0  0  0  0  0  0
   27.1180   11.4740   14.4700 C   0  0  1  0  0  0  0  0  0  0  0  0
   26.8800    9.9930   14.6960 C   0  0  0  0  0  0  0  0  0  0  0  0
   30.5110   11.8910   16.3290 O   0  0  0  0  0  0  0  0  0  0  0  0
   35.6890   11.9710   14.4370 C   0  0  0  0  0  0  0  0  0  0  0  0
   34.6480   12.4270   13.6910 C   0  0  0  0  0  0  0  0  0  0  0  0
   34.4170   11.9150   12.3950 C   0  0  0  0  0  0  0  0  0  0  0  0
   33.4700   12.3550   11.5720 O   0  0  0  0  0  0  0  0  0  0  0  0
   32.6480   13.3850   11.9730 C   0  0  0  0  0  0  0  0  0  0  0  0
   35.2220   10.9430   11.8970 C   0  0  0  0  0  0  0  0  0  0  0  0
   36.2880   10.4850   12.6560 C   0  0  0  0  0  0  0  0  0  0  0  0
   36.5420   10.9710   13.9000 C   0  0  0  0  0  0  0  0  0  0  0  0
  8 12  1  0
  8  9  1  0
 12  7  1  0
 22  7  2  0
  7  6  1  0
  6  4  2  0
  6 19  1  0
 20 21  1  6
 20 15  1  0
 20 17  1  0
  4  3  1  0
  9  5  1  0
 19 15  1  0
 19 14  2  0
  3  1  2  0
  5 13  1  0
 14  1  1  0
 14 18  1  0
 17 18  1  0
 17 16  2  0
 10 13  1  0
 10 11  1  0
 13 23  1  0
 11  2  1  0
 23 24  1  0
 23 30  2  0
 24 25  2  0
 27 26  1  0
  2 30  1  0
 30 29  1  0
 25 26  1  0
 25 28  1  0
 29 28  2  0
M  END
$$$$
