
     RDKit          3D

 20 21  0  0  0  0  0  0  0  0999 V2000
   33.4560   12.5540   19.1060 C   0  0  0  0  0  0  0  0  0  0  0  0
   35.5850   11.1120   16.3030 C   0  0  0  0  0  0  0  0  0  0  0  0
   28.5440   13.3170   13.7020 C   0  0  0  0  0  0  0  0  0  0  0  0
   25.6390   11.3740   12.9270 O   0  0  0  0  0  0  0  0  0  0  0  0
   26.7060   11.6800   13.3830 C   0  0  0  0  0  0  0  0  0  0  0  0
   27.4240   10.8260   14.0980 N   0  0  0  0  0  0  0  0  0  0  0  0
   26.9290    9.4440   14.3450 C   0  0  0  0  0  0  0  0  0  0  0  0
   27.2910   12.9720   13.2020 C   0  0  0  0  0  0  0  0  0  0  0  0
   29.2210   12.3870   14.4620 C   0  0  0  0  0  0  0  0  0  0  0  0
   28.6110   11.1230   14.6110 C   0  0  0  0  0  0  0  0  0  0  0  0
   30.6720   12.6580   15.0660 C   0  0  0  0  0  0  0  0  0  0  0  0
   31.3580   13.3720   14.4400 O   0  0  0  0  0  0  0  0  0  0  0  0
   30.9610   12.0950   16.3740 N   0  0  0  0  0  0  0  0  0  0  0  0
   32.2170   12.1350   17.1700 C   0  0  0  0  0  0  0  0  0  0  0  0
   33.2100   11.6640   16.5020 C   0  0  0  0  0  0  0  0  0  0  0  0
   34.4430   11.5920   17.1510 C   0  0  0  0  0  0  0  0  0  0  0  0
   35.4610   10.7870   15.1250 O   0  0  0  0  0  0  0  0  0  0  0  0
   36.7500   11.1100   16.7480 O   0  0  0  0  0  0  0  0  0  0  0  0
   34.5410   12.0440   18.4300 C   0  0  0  0  0  0  0  0  0  0  0  0
   32.2460   12.5520   18.4740 C   0  0  0  0  0  0  0  0  0  0  0  0
 18  2  2  0
  2 17  1  0
  2 16  1  0
 16 19  1  0
 16 15  2  0
 19  1  2  0
  1 20  1  0
 15 14  1  0
 14 20  2  0
 14 13  1  0
 13 11  1  0
  7  6  1  0
 10  6  1  0
 10  9  2  0
 11 12  2  0
 11  9  1  0
  6  5  1  0
  9  3  1  0
  5  4  2  0
  5  8  1  0
  3  8  2  0
M  END
$$$$
