
     RDKit          3D

 30 33  0  0  0  0  0  0  0  0999 V2000
   28.6370   14.9420   12.6730 C   0  0  0  0  0  0  0  0  0  0  0  0
   37.6610   10.4430   14.7000 C   0  0  0  0  0  0  0  0  0  0  0  0
   29.7340   15.5950   13.2810 C   0  0  0  0  0  0  0  0  0  0  0  0
   30.4220   14.9630   14.3160 C   0  0  0  0  0  0  0  0  0  0  0  0
   34.9080   13.1810   16.4400 C   0  0  0  0  0  0  0  0  0  0  0  0
   30.0630   13.6970   14.8030 C   0  0  0  0  0  0  0  0  0  0  0  0
   30.7950   13.0210   15.9030 C   0  0  0  0  0  0  0  0  0  0  0  0
   32.6180   13.0900   17.5330 C   0  0  0  0  0  0  0  0  0  0  0  0
   33.7650   12.2420   16.9920 C   0  0  0  0  0  0  0  0  0  0  0  0
   36.8980   11.7700   16.5880 C   0  0  0  0  0  0  0  0  0  0  0  0
   38.1220   11.3800   15.7930 C   0  0  0  0  0  0  0  0  0  0  0  0
   31.8270   13.6740   16.4520 N   0  0  0  0  0  0  0  0  0  0  0  0
   35.8750   12.3890   15.7380 N   0  0  0  0  0  0  0  0  0  0  0  0
   28.2710   13.7040   13.1700 C   0  0  0  0  0  0  0  0  0  0  0  0
   28.5400   11.7800   14.5920 N   0  0  0  0  0  0  0  0  0  0  0  0
   25.6770   11.3240   12.5450 O   0  0  0  0  0  0  0  0  0  0  0  0
   26.6070   11.8960   13.1170 C   0  0  0  0  0  0  0  0  0  0  0  0
   27.1980   12.9770   12.5470 N   0  0  0  0  0  0  0  0  0  0  0  0
   28.9600   13.0590   14.2260 C   0  0  0  0  0  0  0  0  0  0  0  0
   27.1180   11.4740   14.4700 C   0  0  1  0  0  0  0  0  0  0  0  0
   26.8800    9.9930   14.6960 C   0  0  0  0  0  0  0  0  0  0  0  0
   30.5110   11.8910   16.3290 O   0  0  0  0  0  0  0  0  0  0  0  0
   35.6890   11.9710   14.4370 C   0  0  0  0  0  0  0  0  0  0  0  0
   34.6480   12.4270   13.6910 C   0  0  0  0  0  0  0  0  0  0  0  0
   34.4170   11.9150   12.3950 C   0  0  0  0  0  0  0  0  0  0  0  0
   33.4700   12.3550   11.5720 O   0  0  0  0  0  0  0  0  0  0  0  0
   32.6480   13.3850   11.9730 C   0  0  0  0  0  0  0  0  0  0  0  0
   35.2220   10.9430   11.8970 C   0  0  0  0  0  0  0  0  0  0  0  0
   36.2880   10.4850   12.6560 C   0  0  0  0  0  0  0  0  0  0  0  0
   36.5420   10.9710   13.9000 C   0  0  0  0  0  0  0  0  0  0  0  0
  8 12  1  0
  8  9  1  0
 12  7  1  0
 22  7  2  0
  7  6  1  0
  6  4  2  0
  6 19  1  0
 20 21  1  6
 20 15  1  0
 20 17  1  0
  4  3  1  0
  9  5  1  0
 19 15  1  0
 19 14  2  0
  3  1  2  0
  5 13  1  0
 14  1  1  0
 14 18  1  0
 17 18  1  0
 17 16  2  0
 10 13  1  0
 10 11  1  0
 13 23  1  0
 11  2  1  0
 23 24  1  0
 23 30  2  0
 24 25  2  0
 27 26  1  0
  2 30  1  0
 30 29  1  0
 25 26  1  0
 25 28  1  0
 29 28  2  0
M  END
$$$$

     RDKit          3D

 19 21  0  0  0  0  0  0  0  0999 V2000
   27.7650   14.1460   12.5960 C   0  0  0  0  0  0  0  0  0  0  0  0
   26.7410   13.5440   13.5230 C   0  0  0  0  0  0  0  0  0  0  0  0
   27.2560   12.2300   13.9490 N   0  0  0  0  0  0  0  0  0  0  0  0
   26.6190   11.1450   13.4990 C   0  0  0  0  0  0  0  0  0  0  0  0
   25.6570   11.2420   12.7490 O   0  0  0  0  0  0  0  0  0  0  0  0
   27.0430    9.7940   14.1060 C   0  0  0  0  0  0  0  0  0  0  0  0
   28.4870   12.2210   14.7260 C   0  0  0  0  0  0  0  0  0  0  0  0
   29.4250   13.0790   14.0750 C   0  0  0  0  0  0  0  0  0  0  0  0
   29.0640   13.9610   13.0850 C   0  0  0  0  0  0  0  0  0  0  0  0
   30.1800   14.6360   12.7290 N   0  0  0  0  0  0  0  0  0  0  0  0
   31.1740   14.1300   13.3690 N   0  0  0  0  0  0  0  0  0  0  0  0
   30.7490   13.1880   14.2070 C   0  0  0  0  0  0  0  0  0  0  0  0
   31.4830   12.5990   15.1720 N   0  0  0  0  0  0  0  0  0  0  0  0
   32.7540   12.1980   15.0690 C   0  0  0  0  0  0  0  0  0  0  0  0
   33.3740   11.7650   16.2370 C   0  0  0  0  0  0  0  0  0  0  0  0
   34.6770   11.3090   16.2260 C   0  0  0  0  0  0  0  0  0  0  0  0
   35.3170   11.2210   15.0090 C   0  0  0  0  0  0  0  0  0  0  0  0
   34.7420   11.6870   13.8400 C   0  0  0  0  0  0  0  0  0  0  0  0
   33.4340   12.1580   13.8560 C   0  0  0  0  0  0  0  0  0  0  0  0
 16 17  1  0
 16 15  2  0
 17 18  2  0
 15 14  1  0
  6  4  1  0
 18 19  1  0
 14 19  2  0
 14 13  1  0
 13 12  1  0
  7  3  1  0
  7  8  1  0
  4  3  1  0
  4  5  2  0
 12  8  1  0
 12 11  2  0
  3  2  1  0
  8  9  2  0
 11 10  1  0
  2  1  1  0
  9 10  1  0
  9  1  1  0
M  END
$$$$

     RDKit          3D

 20 21  0  0  0  0  0  0  0  0999 V2000
   33.4560   12.5540   19.1060 C   0  0  0  0  0  0  0  0  0  0  0  0
   35.5850   11.1120   16.3030 C   0  0  0  0  0  0  0  0  0  0  0  0
   28.5440   13.3170   13.7020 C   0  0  0  0  0  0  0  0  0  0  0  0
   25.6390   11.3740   12.9270 O   0  0  0  0  0  0  0  0  0  0  0  0
   26.7060   11.6800   13.3830 C   0  0  0  0  0  0  0  0  0  0  0  0
   27.4240   10.8260   14.0980 N   0  0  0  0  0  0  0  0  0  0  0  0
   26.9290    9.4440   14.3450 C   0  0  0  0  0  0  0  0  0  0  0  0
   27.2910   12.9720   13.2020 C   0  0  0  0  0  0  0  0  0  0  0  0
   29.2210   12.3870   14.4620 C   0  0  0  0  0  0  0  0  0  0  0  0
   28.6110   11.1230   14.6110 C   0  0  0  0  0  0  0  0  0  0  0  0
   30.6720   12.6580   15.0660 C   0  0  0  0  0  0  0  0  0  0  0  0
   31.3580   13.3720   14.4400 O   0  0  0  0  0  0  0  0  0  0  0  0
   30.9610   12.0950   16.3740 N   0  0  0  0  0  0  0  0  0  0  0  0
   32.2170   12.1350   17.1700 C   0  0  0  0  0  0  0  0  0  0  0  0
   33.2100   11.6640   16.5020 C   0  0  0  0  0  0  0  0  0  0  0  0
   34.4430   11.5920   17.1510 C   0  0  0  0  0  0  0  0  0  0  0  0
   35.4610   10.7870   15.1250 O   0  0  0  0  0  0  0  0  0  0  0  0
   36.7500   11.1100   16.7480 O   0  0  0  0  0  0  0  0  0  0  0  0
   34.5410   12.0440   18.4300 C   0  0  0  0  0  0  0  0  0  0  0  0
   32.2460   12.5520   18.4740 C   0  0  0  0  0  0  0  0  0  0  0  0
 18  2  2  0
  2 17  1  0
  2 16  1  0
 16 19  1  0
 16 15  2  0
 19  1  2  0
  1 20  1  0
 15 14  1  0
 14 20  2  0
 14 13  1  0
 13 11  1  0
  7  6  1  0
 10  6  1  0
 10  9  2  0
 11 12  2  0
 11  9  1  0
  6  5  1  0
  9  3  1  0
  5  4  2  0
  5  8  1  0
  3  8  2  0
M  END
$$$$

     RDKit          3D

 34 38  0  0  0  0  0  0  0  0999 V2000
   27.1950   10.6090   13.8690 C   0  0  0  0  0  0  0  0  0  0  0  0
   27.7170   11.9520   14.0040 C   0  0  0  0  0  0  0  0  0  0  0  0
   26.5740   14.2010   13.2990 C   0  0  0  0  0  0  0  0  0  0  0  0
   31.3770   13.1150   15.6840 C   0  0  0  0  0  0  0  0  0  0  0  0
   30.9360   13.7190   14.4760 C   0  0  0  0  0  0  0  0  0  0  0  0
   33.4930   13.2610   17.0540 C   0  0  0  0  0  0  0  0  0  0  0  0
   34.2290   11.9790   16.5970 C   0  0  0  0  0  0  0  0  0  0  0  0
   29.7210   13.3350   13.9030 C   0  0  0  0  0  0  0  0  0  0  0  0
   32.8830   14.6200   14.9380 C   0  0  0  0  0  0  0  0  0  0  0  0
   36.2520   10.6850   17.1260 C   0  0  0  0  0  0  0  0  0  0  0  0
   35.6240   10.7140   19.8900 C   0  0  0  0  0  0  0  0  0  0  0  0
   34.3310   13.1630   12.3500 C   0  0  0  0  0  0  0  0  0  0  0  0
   34.6580   11.8340   12.1380 C   0  0  0  0  0  0  0  0  0  0  0  0
   35.7990   11.3060   12.7570 C   0  0  0  0  0  0  0  0  0  0  0  0
   36.6250   12.1020   13.5460 C   0  0  0  0  0  0  0  0  0  0  0  0
   36.2720   13.4320   13.7540 C   0  0  0  0  0  0  0  0  0  0  0  0
   37.0340    9.3360   13.1870 C   0  0  0  0  0  0  0  0  0  0  0  0
   35.9940    9.9810   12.4980 O   0  0  0  0  0  0  0  0  0  0  0  0
   35.1240   13.9610   13.1770 C   0  0  0  0  0  0  0  0  0  0  0  0
   34.7340   15.3720   13.4690 C   0  0  0  0  0  0  0  0  0  0  0  0
   34.1190   15.4460   14.8710 C   0  0  0  0  0  0  0  0  0  0  0  0
   32.6000   13.7270   15.9990 N   0  0  0  0  0  0  0  0  0  0  0  0
   35.2160   11.6200   17.6520 N   0  0  0  0  0  0  0  0  0  0  0  0
   34.5490   10.9830   18.8230 C   0  0  0  0  0  0  0  0  0  0  0  0
   36.6190    9.8710   19.3720 O   0  0  0  0  0  0  0  0  0  0  0  0
   37.2630   10.4200   18.2550 C   0  0  0  0  0  0  0  0  0  0  0  0
   30.6270   12.1340   16.3390 C   0  0  0  0  0  0  0  0  0  0  0  0
   29.4290   11.7710   15.7610 C   0  0  0  0  0  0  0  0  0  0  0  0
   31.8880   14.6650   14.0270 N   0  0  0  0  0  0  0  0  0  0  0  0
   28.9870   12.3580   14.5530 C   0  0  0  0  0  0  0  0  0  0  0  0
   26.7180   12.7540   13.4990 C   0  0  0  0  0  0  0  0  0  0  0  0
   25.6640   11.9640   13.1080 O   0  0  0  0  0  0  0  0  0  0  0  0
   25.9620   10.6760   13.3260 N   0  0  0  0  0  0  0  0  0  0  0  0
   27.8650    9.3430   14.2220 C   0  0  0  0  0  0  0  0  0  0  0  0
 34  1  1  0
 33  1  2  0
 33 32  1  0
  1  2  1  0
 12 13  2  0
 12 19  1  0
 32 31  1  0
 13 14  1  0
  8  5  2  0
  8 30  1  0
 20 19  1  0
 20 21  1  0
  2 31  2  0
  2 30  1  0
 29  5  1  0
 29  9  2  0
 19 16  2  0
 31  3  1  0
  5  4  1  0
 30 28  2  0
 14 18  1  0
 14 15  2  0
 21  9  1  0
 18 17  1  0
  9 22  1  0
 16 15  1  0
  4 22  1  0
  4 27  2  0
 28 27  1  0
 22  6  1  0
  6  7  1  0
  7 23  1  0
 11 25  1  0
 11 24  1  0
 26 25  1  0
 26 10  1  0
 23 24  1  0
 23 10  1  0
M  END
$$$$
