
 OpenBabel02212407153D

 64 66  0  0  0  0  0  0  0  0999 V2000
   -8.4980  -31.7980    6.3630 C   0  0  0  0  0  0  0  0  0  0  0  0
   -9.4770  -33.3990    7.8860 C   0  0  0  0  0  0  0  0  0  0  0  0
   -7.4380  -35.9830    9.7950 C   0  0  0  0  0  0  0  0  0  0  0  0
   -8.9410  -34.7180    8.4140 C   0  0  0  0  0  0  0  0  0  0  0  0
   -9.5110  -35.9030    7.9800 C   0  0  0  0  0  0  0  0  0  0  0  0
   -9.0500  -37.1190    8.4460 C   0  0  0  0  0  0  0  0  0  0  0  0
   -8.0080  -37.1700    9.3550 C   0  0  0  0  0  0  0  0  0  0  0  0
   -7.9000  -34.7630    9.3260 C   0  0  0  0  0  0  0  0  0  0  0  0
   -6.5920  -33.1350    5.4340 C   0  0  0  0  0  0  0  0  0  0  0  0
   -8.1230  -31.8980    3.9270 C   0  0  0  0  0  0  0  0  0  0  0  0
   -8.0410  -32.7060    5.2210 C   0  0  0  0  0  0  0  0  0  0  0  0
   -8.3920  -32.4300    7.6840 N   0  0  0  0  0  0  0  0  0  0  0  0
   -7.5650  -38.3720    9.8150 F   0  0  0  0  0  0  0  0  0  0  0  0
   -8.4980  -31.2100    8.8210 S   0  0  0  0  0  0  0  0  0  0  0  0
   -8.8710  -31.8220   10.0500 O   0  0  0  0  0  0  0  0  0  0  0  0
   -7.3040  -30.4670    8.6150 O   0  0  0  0  0  0  0  0  0  0  0  0
   -9.8070  -30.0930    8.4460 C   0  0  0  0  0  0  0  0  0  0  0  0
  -11.0290  -30.2350    9.0890 C   0  0  0  0  0  0  0  0  0  0  0  0
  -12.0280  -29.3170    8.8000 C   0  0  0  0  0  0  0  0  0  0  0  0
  -11.7880  -28.3050    7.8880 C   0  0  0  0  0  0  0  0  0  0  0  0
  -10.6030  -28.2020    7.2930 N   0  0  0  0  0  0  0  0  0  0  0  0
   -9.6270  -29.0540    7.5490 C   0  0  0  0  0  0  0  0  0  0  0  0
  -12.8020  -27.3950    7.5930 N   0  0  0  0  0  0  0  0  0  0  0  0
  -12.4500  -26.1550    6.8910 C   0  0  0  0  0  0  0  0  0  0  0  0
  -12.5900  -26.3160    5.3750 C   0  0  0  0  0  0  0  0  0  0  0  0
  -14.0520  -26.5220    4.9330 C   0  0  0  0  0  0  0  0  0  0  0  0
  -15.0170  -25.6370    5.6250 N   0  0  0  0  0  0  0  0  0  0  0  0
  -14.8020  -25.2650    7.0340 C   0  0  0  0  0  0  0  0  0  0  0  0
  -13.3310  -24.9980    7.3690 C   0  0  0  0  0  0  0  0  0  0  0  0
  -16.4570  -25.2120    4.8980 S   0  0  0  0  0  0  0  0  0  0  0  0
  -16.9000  -23.9860    5.4750 O   0  0  0  0  0  0  0  0  0  0  0  0
  -16.3200  -25.3380    3.4860 O   0  0  0  0  0  0  0  0  0  0  0  0
  -17.5920  -26.4900    5.5530 C   0  0  0  0  0  0  0  0  0  0  0  0
   -9.5202  -31.5298    6.1956 H   0  0  0  0  0  0  0  0  0  0  0  0
   -7.8532  -30.9441    6.3670 H   0  0  0  0  0  0  0  0  0  0  0  0
  -10.1762  -32.9989    8.5903 H   0  0  0  0  0  0  0  0  0  0  0  0
   -9.9524  -33.5780    6.9443 H   0  0  0  0  0  0  0  0  0  0  0  0
   -6.6639  -36.0091   10.4769 H   0  0  0  0  0  0  0  0  0  0  0  0
  -10.2882  -35.8775    7.3015 H   0  0  0  0  0  0  0  0  0  0  0  0
   -9.4851  -37.9941    8.1144 H   0  0  0  0  0  0  0  0  0  0  0  0
   -7.4672  -33.8866    9.6572 H   0  0  0  0  0  0  0  0  0  0  0  0
   -6.5173  -33.7029    6.3378 H   0  0  0  0  0  0  0  0  0  0  0  0
   -5.9700  -32.2673    5.5056 H   0  0  0  0  0  0  0  0  0  0  0  0
   -6.2727  -33.7355    4.6080 H   0  0  0  0  0  0  0  0  0  0  0  0
   -7.8086  -32.5073    3.1055 H   0  0  0  0  0  0  0  0  0  0  0  0
   -7.4857  -31.0416    4.0003 H   0  0  0  0  0  0  0  0  0  0  0  0
   -9.1321  -31.5792    3.7689 H   0  0  0  0  0  0  0  0  0  0  0  0
   -8.6595  -33.5782    5.1800 H   0  0  0  0  0  0  0  0  0  0  0  0
  -11.1895  -31.0007    9.7620 H   0  0  0  0  0  0  0  0  0  0  0  0
  -12.9471  -29.3888    9.2638 H   0  0  0  0  0  0  0  0  0  0  0  0
   -8.7176  -28.9438    7.0738 H   0  0  0  0  0  0  0  0  0  0  0  0
  -13.7342  -27.5801    7.8500 H   0  0  0  0  0  0  0  0  0  0  0  0
  -11.4272  -25.9360    7.1163 H   0  0  0  0  0  0  0  0  0  0  0  0
  -12.2093  -25.4358    4.9004 H   0  0  0  0  0  0  0  0  0  0  0  0
  -12.0394  -27.1880    5.0896 H   0  0  0  0  0  0  0  0  0  0  0  0
  -14.3241  -27.5377    5.1309 H   0  0  0  0  0  0  0  0  0  0  0  0
  -14.0993  -26.2802    3.8917 H   0  0  0  0  0  0  0  0  0  0  0  0
  -15.1527  -26.0634    7.6540 H   0  0  0  0  0  0  0  0  0  0  0  0
  -15.3384  -24.3558    7.2087 H   0  0  0  0  0  0  0  0  0  0  0  0
  -13.0187  -24.0957    6.8861 H   0  0  0  0  0  0  0  0  0  0  0  0
  -13.2308  -24.9042    8.4302 H   0  0  0  0  0  0  0  0  0  0  0  0
  -17.3178  -27.4463    5.1590 H   0  0  0  0  0  0  0  0  0  0  0  0
  -18.5954  -26.2588    5.2621 H   0  0  0  0  0  0  0  0  0  0  0  0
  -17.5263  -26.5120    6.6208 H   0  0  0  0  0  0  0  0  0  0  0  0
  1 12  1  0  0  0  0
  1 34  1  0  0  0  0
  1 35  1  0  0  0  0
  2 36  1  0  0  0  0
  2 37  1  0  0  0  0
  3  8  1  0  0  0  0
  3 38  1  0  0  0  0
  4  2  1  0  0  0  0
  5  4  1  0  0  0  0
  5 39  1  0  0  0  0
  6  5  2  0  0  0  0
  6 40  1  0  0  0  0
  7  6  1  0  0  0  0
  7  3  2  0  0  0  0
  8  4  2  0  0  0  0
  8 41  1  0  0  0  0
  9 11  1  0  0  0  0
  9 42  1  0  0  0  0
  9 43  1  0  0  0  0
  9 44  1  0  0  0  0
 10 45  1  0  0  0  0
 10 46  1  0  0  0  0
 10 47  1  0  0  0  0
 11  1  1  0  0  0  0
 11 10  1  0  0  0  0
 11 48  1  0  0  0  0
 12  2  1  0  0  0  0
 12 14  1  0  0  0  0
 13  7  1  0  0  0  0
 14 15  2  0  0  0  0
 14 17  1  0  0  0  0
 16 14  2  0  0  0  0
 17 18  2  0  0  0  0
 18 19  1  0  0  0  0
 18 49  1  0  0  0  0
 19 50  1  0  0  0  0
 20 19  2  0  0  0  0
 20 23  1  0  0  0  0
 21 20  1  0  0  0  0
 22 17  1  0  0  0  0
 22 21  2  0  0  0  0
 22 51  1  0  0  0  0
 23 52  1  0  0  0  0
 24 23  1  0  0  0  0
 24 29  1  0  0  0  0
 24 53  1  0  0  0  0
 25 26  1  0  0  0  0
 25 24  1  0  0  0  0
 25 54  1  0  0  0  0
 25 55  1  0  0  0  0
 26 27  1  0  0  0  0
 26 56  1  0  0  0  0
 26 57  1  0  0  0  0
 27 30  1  0  0  0  0
 27 28  1  0  0  0  0
 28 58  1  0  0  0  0
 28 59  1  0  0  0  0
 29 28  1  0  0  0  0
 29 60  1  0  0  0  0
 29 61  1  0  0  0  0
 30 33  1  0  0  0  0
 30 31  2  0  0  0  0
 32 30  2  0  0  0  0
 33 62  1  0  0  0  0
 33 63  1  0  0  0  0
 33 64  1  0  0  0  0
M  END
$$$$
