
     RDKit          3D

 33 35  0  0  0  0  0  0  0  0999 V2000
   -8.4980  -31.7980    6.3630 C   0  0  0  0  0  0  0  0  0  0  0  0
   -9.4770  -33.3990    7.8860 C   0  0  0  0  0  0  0  0  0  0  0  0
   -7.4380  -35.9830    9.7950 C   0  0  0  0  0  0  0  0  0  0  0  0
   -8.9410  -34.7180    8.4140 C   0  0  0  0  0  0  0  0  0  0  0  0
   -9.5110  -35.9030    7.9800 C   0  0  0  0  0  0  0  0  0  0  0  0
   -9.0500  -37.1190    8.4460 C   0  0  0  0  0  0  0  0  0  0  0  0
   -8.0080  -37.1700    9.3550 C   0  0  0  0  0  0  0  0  0  0  0  0
   -7.9000  -34.7630    9.3260 C   0  0  0  0  0  0  0  0  0  0  0  0
   -6.5920  -33.1350    5.4340 C   0  0  0  0  0  0  0  0  0  0  0  0
   -8.1230  -31.8980    3.9270 C   0  0  0  0  0  0  0  0  0  0  0  0
   -8.0410  -32.7060    5.2210 C   0  0  0  0  0  0  0  0  0  0  0  0
   -8.3920  -32.4300    7.6840 N   0  0  0  0  0  0  0  0  0  0  0  0
   -7.5650  -38.3720    9.8150 F   0  0  0  0  0  0  0  0  0  0  0  0
   -8.4980  -31.2100    8.8210 S   0  0  0  0  0  0  0  0  0  0  0  0
   -8.8710  -31.8220   10.0500 O   0  0  0  0  0  0  0  0  0  0  0  0
   -7.3040  -30.4670    8.6150 O   0  0  0  0  0  0  0  0  0  0  0  0
   -9.8070  -30.0930    8.4460 C   0  0  0  0  0  0  0  0  0  0  0  0
  -11.0290  -30.2350    9.0890 C   0  0  0  0  0  0  0  0  0  0  0  0
  -12.0280  -29.3170    8.8000 C   0  0  0  0  0  0  0  0  0  0  0  0
  -11.7880  -28.3050    7.8880 C   0  0  0  0  0  0  0  0  0  0  0  0
  -10.6030  -28.2020    7.2930 N   0  0  0  0  0  0  0  0  0  0  0  0
   -9.6270  -29.0540    7.5490 C   0  0  0  0  0  0  0  0  0  0  0  0
  -12.8020  -27.3950    7.5930 N   0  0  0  0  0  0  0  0  0  0  0  0
  -12.4500  -26.1550    6.8910 C   0  0  0  0  0  0  0  0  0  0  0  0
  -12.5900  -26.3160    5.3750 C   0  0  0  0  0  0  0  0  0  0  0  0
  -14.0520  -26.5220    4.9330 C   0  0  0  0  0  0  0  0  0  0  0  0
  -15.0170  -25.6370    5.6250 N   0  0  0  0  0  0  0  0  0  0  0  0
  -14.8020  -25.2650    7.0340 C   0  0  0  0  0  0  0  0  0  0  0  0
  -13.3310  -24.9980    7.3690 C   0  0  0  0  0  0  0  0  0  0  0  0
  -16.4570  -25.2120    4.8980 S   0  0  0  0  0  0  0  0  0  0  0  0
  -16.9000  -23.9860    5.4750 O   0  0  0  0  0  0  0  0  0  0  0  0
  -16.3200  -25.3380    3.4860 O   0  0  0  0  0  0  0  0  0  0  0  0
  -17.5920  -26.4900    5.5530 C   0  0  0  0  0  0  0  0  0  0  0  0
  9 11  1  0
 13  7  1  0
 11  1  1  0
 11 10  1  0
  7  6  1  0
  7  3  2  0
  6  5  2  0
  3  8  1  0
  1 12  1  0
  5  4  1  0
  8  4  2  0
  4  2  1  0
 12  2  1  0
 12 14  1  0
 16 14  2  0
 14 15  2  0
 14 17  1  0
 22 17  1  0
 22 21  2  0
 17 18  2  0
 21 20  1  0
 18 19  1  0
 20 19  2  0
 20 23  1  0
 25 26  1  0
 25 24  1  0
 26 27  1  0
 24 23  1  0
 24 29  1  0
 32 30  2  0
 27 30  1  0
 27 28  1  0
 29 28  1  0
 30 33  1  0
 30 31  2  0
M  END
$$$$
