
 OpenBabel02212407153D

 59 62  0  0  0  0  0  0  0  0999 V2000
   -9.2210  -29.6820    7.8800 C   0  0  0  0  0  0  0  0  0  0  0  0
  -12.9950  -25.9630    5.9050 C   0  0  0  0  0  0  0  0  0  0  0  0
  -12.1690  -27.2410    6.1110 C   0  0  0  0  0  0  0  0  0  0  0  0
  -11.9070  -29.9070    8.5040 C   0  0  0  0  0  0  0  0  0  0  0  0
  -13.7450  -28.0620    7.7880 C   0  0  0  0  0  0  0  0  0  0  0  0
  -14.6110  -26.7960    7.6560 C   0  0  0  0  0  0  0  0  0  0  0  0
  -11.4510  -28.7610    7.8440 C   0  0  0  0  0  0  0  0  0  0  0  0
  -11.0310  -30.9290    8.8430 C   0  0  0  0  0  0  0  0  0  0  0  0
   -9.6830  -30.8250    8.5330 C   0  0  0  0  0  0  0  0  0  0  0  0
  -16.8580  -26.3020    5.8660 C   0  0  0  0  0  0  0  0  0  0  0  0
  -15.4310  -26.0090    5.4570 C   0  0  0  0  0  0  0  0  0  0  0  0
  -15.2200  -25.5540    4.3520 O   0  0  0  0  0  0  0  0  0  0  0  0
  -14.3920  -26.2430    6.3040 N   0  0  0  0  0  0  0  0  0  0  0  0
  -12.3380  -27.7230    7.4990 N   0  0  0  0  0  0  0  0  0  0  0  0
  -10.0940  -28.6600    7.5360 C   0  0  0  0  0  0  0  0  0  0  0  0
   -7.9150  -29.5560    7.5610 F   0  0  0  0  0  0  0  0  0  0  0  0
   -8.7310  -31.9460    8.8990 C   0  0  0  0  0  0  0  0  0  0  0  0
   -8.9250  -33.1730    8.0890 N   0  0  0  0  0  0  0  0  0  0  0  0
   -8.4050  -33.3170    6.7050 C   0  0  0  0  0  0  0  0  0  0  0  0
   -8.1400  -32.0640    5.8430 C   0  0  0  0  0  0  0  0  0  0  0  0
   -6.9580  -32.8470    5.2450 C   0  0  0  0  0  0  0  0  0  0  0  0
   -6.8870  -33.5700    6.6010 C   0  0  0  0  0  0  0  0  0  0  0  0
   -9.7250  -34.4980    8.7350 S   0  0  0  0  0  0  0  0  0  0  0  0
  -10.6480  -34.0470    9.7190 O   0  0  0  0  0  0  0  0  0  0  0  0
  -10.1510  -35.3270    7.6600 O   0  0  0  0  0  0  0  0  0  0  0  0
   -8.5070  -35.4350    9.5980 C   0  0  0  0  0  0  0  0  0  0  0  0
   -7.5960  -36.2050    8.8860 C   0  0  0  0  0  0  0  0  0  0  0  0
   -6.6340  -36.9420    9.5570 C   0  0  0  0  0  0  0  0  0  0  0  0
   -6.5860  -36.9040   10.9420 C   0  0  0  0  0  0  0  0  0  0  0  0
   -7.4940  -36.1370   11.6590 C   0  0  0  0  0  0  0  0  0  0  0  0
   -8.4580  -35.4020   10.9860 C   0  0  0  0  0  0  0  0  0  0  0  0
  -12.5975  -25.1741    6.5088 H   0  0  0  0  0  0  0  0  0  0  0  0
  -12.9581  -25.6618    4.8789 H   0  0  0  0  0  0  0  0  0  0  0  0
  -12.5033  -27.9948    5.4291 H   0  0  0  0  0  0  0  0  0  0  0  0
  -11.1356  -27.0288    5.9320 H   0  0  0  0  0  0  0  0  0  0  0  0
  -12.9075  -29.9937    8.7419 H   0  0  0  0  0  0  0  0  0  0  0  0
  -14.0845  -28.8013    7.0930 H   0  0  0  0  0  0  0  0  0  0  0  0
  -13.8236  -28.4478    8.7829 H   0  0  0  0  0  0  0  0  0  0  0  0
  -14.3223  -26.0780    8.3949 H   0  0  0  0  0  0  0  0  0  0  0  0
  -15.6445  -27.0312    7.8025 H   0  0  0  0  0  0  0  0  0  0  0  0
  -11.3839  -31.7692    9.3274 H   0  0  0  0  0  0  0  0  0  0  0  0
  -16.8702  -26.6953    6.8610 H   0  0  0  0  0  0  0  0  0  0  0  0
  -17.2816  -27.0188    5.1939 H   0  0  0  0  0  0  0  0  0  0  0  0
  -17.4312  -25.3991    5.8323 H   0  0  0  0  0  0  0  0  0  0  0  0
   -9.7382  -27.8218    7.0504 H   0  0  0  0  0  0  0  0  0  0  0  0
   -8.8787  -32.1933    9.9295 H   0  0  0  0  0  0  0  0  0  0  0  0
   -7.7395  -31.5936    8.7051 H   0  0  0  0  0  0  0  0  0  0  0  0
   -9.1620  -34.0165    6.4176 H   0  0  0  0  0  0  0  0  0  0  0  0
   -7.8677  -31.1877    6.3934 H   0  0  0  0  0  0  0  0  0  0  0  0
   -8.8978  -31.6174    5.2338 H   0  0  0  0  0  0  0  0  0  0  0  0
   -7.2055  -33.4720    4.4126 H   0  0  0  0  0  0  0  0  0  0  0  0
   -6.1104  -32.3622    4.8075 H   0  0  0  0  0  0  0  0  0  0  0  0
   -6.6048  -34.6007    6.5476 H   0  0  0  0  0  0  0  0  0  0  0  0
   -6.2041  -33.2766    7.3707 H   0  0  0  0  0  0  0  0  0  0  0  0
   -7.6360  -36.2280    7.8550 H   0  0  0  0  0  0  0  0  0  0  0  0
   -5.9575  -37.5156    9.0294 H   0  0  0  0  0  0  0  0  0  0  0  0
   -5.8691  -37.4506   11.4442 H   0  0  0  0  0  0  0  0  0  0  0  0
   -7.4517  -36.1139   12.6899 H   0  0  0  0  0  0  0  0  0  0  0  0
   -9.1370  -34.8322   11.5145 H   0  0  0  0  0  0  0  0  0  0  0  0
  1  9  1  0  0  0  0
  2 13  1  0  0  0  0
  2  3  1  0  0  0  0
  2 32  1  0  0  0  0
  2 33  1  0  0  0  0
  3 34  1  0  0  0  0
  3 35  1  0  0  0  0
  4  8  1  0  0  0  0
  4 36  1  0  0  0  0
  5 37  1  0  0  0  0
  5 38  1  0  0  0  0
  6  5  1  0  0  0  0
  6 13  1  0  0  0  0
  6 39  1  0  0  0  0
  6 40  1  0  0  0  0
  7  4  2  0  0  0  0
  8 41  1  0  0  0  0
  9 17  1  0  0  0  0
  9  8  2  0  0  0  0
 10 42  1  0  0  0  0
 10 43  1  0  0  0  0
 10 44  1  0  0  0  0
 11 10  1  0  0  0  0
 11 12  2  0  0  0  0
 13 11  1  0  0  0  0
 14  7  1  0  0  0  0
 14  5  1  0  0  0  0
 14  3  1  0  0  0  0
 15  1  2  0  0  0  0
 15  7  1  0  0  0  0
 15 45  1  0  0  0  0
 16  1  1  0  0  0  0
 17 18  1  0  0  0  0
 17 46  1  0  0  0  0
 17 47  1  0  0  0  0
 18 23  1  0  0  0  0
 18 19  1  0  0  0  0
 19 48  1  0  0  0  0
 20 19  1  0  0  0  0
 20 21  1  0  0  0  0
 20 49  1  0  0  0  0
 20 50  1  0  0  0  0
 21 51  1  0  0  0  0
 21 52  1  0  0  0  0
 22 19  1  0  0  0  0
 22 21  1  0  0  0  0
 22 53  1  0  0  0  0
 22 54  1  0  0  0  0
 23 25  2  0  0  0  0
 24 23  2  0  0  0  0
 26 23  1  0  0  0  0
 26 27  2  0  0  0  0
 27 55  1  0  0  0  0
 28 27  1  0  0  0  0
 28 56  1  0  0  0  0
 29 28  2  0  0  0  0
 29 57  1  0  0  0  0
 30 31  2  0  0  0  0
 30 29  1  0  0  0  0
 30 58  1  0  0  0  0
 31 26  1  0  0  0  0
 31 59  1  0  0  0  0
M  END
$$$$
