
     RDKit          3D

 31 34  0  0  0  0  0  0  0  0999 V2000
   -8.6880  -34.0200    6.5310 C   0  0  0  0  0  0  0  0  0  0  0  0
   -8.9660  -35.2570    7.3970 C   0  0  0  0  0  0  0  0  0  0  0  0
  -10.0570  -36.1150    6.7650 C   0  0  0  0  0  0  0  0  0  0  0  0
   -7.7380  -36.0640    7.7200 C   0  0  0  0  0  0  0  0  0  0  0  0
   -7.4190  -30.8630    5.1590 C   0  0  0  0  0  0  0  0  0  0  0  0
   -8.2480  -31.9750    7.3560 C   0  0  0  0  0  0  0  0  0  0  0  0
   -8.1710  -30.7800    6.4820 C   0  0  0  0  0  0  0  0  0  0  0  0
   -8.7940  -29.6190    6.9350 C   0  0  0  0  0  0  0  0  0  0  0  0
   -8.9380  -31.9760    8.5610 C   0  0  0  0  0  0  0  0  0  0  0  0
   -9.5280  -30.8000    8.9690 C   0  0  0  0  0  0  0  0  0  0  0  0
   -9.4450  -29.6380    8.1840 C   0  0  0  0  0  0  0  0  0  0  0  0
  -12.4050  -27.4860    9.1310 C   0  0  0  0  0  0  0  0  0  0  0  0
  -11.7890  -26.2730    9.4720 C   0  0  0  0  0  0  0  0  0  0  0  0
  -10.3960  -26.1210    9.4170 C   0  0  0  0  0  0  0  0  0  0  0  0
   -9.7830  -24.7990    9.7520 C   0  0  0  0  0  0  0  0  0  0  0  0
   -9.5800  -27.1910    9.0020 C   0  0  0  0  0  0  0  0  0  0  0  0
   -9.9010  -37.4810    6.5380 C   0  0  0  0  0  0  0  0  0  0  0  0
   -8.7140  -38.1230    6.8720 C   0  0  0  0  0  0  0  0  0  0  0  0
   -7.6570  -37.4310    7.4620 C   0  0  0  0  0  0  0  0  0  0  0  0
   -8.6790  -24.6070    9.3080 O   0  0  0  0  0  0  0  0  0  0  0  0
  -10.4130  -23.8380   10.4360 N   0  0  0  0  0  0  0  0  0  0  0  0
   -9.9360  -22.5090   10.8070 C   0  0  0  0  0  0  0  0  0  0  0  0
  -11.6480  -28.5740    8.7210 C   0  0  0  0  0  0  0  0  0  0  0  0
  -12.4720  -30.1190    8.2720 Cl  0  0  0  0  0  0  0  0  0  0  0  0
  -10.1590  -28.4200    8.6620 C   0  0  0  0  0  0  0  0  0  0  0  0
   -6.5370  -32.1250    5.0170 C   0  0  0  0  0  0  0  0  0  0  0  0
   -6.3450  -32.9640    6.2930 C   0  0  0  0  0  0  0  0  0  0  0  0
   -7.7060  -33.0960    6.7820 N   0  0  0  0  0  0  0  0  0  0  0  0
   -9.4750  -33.7910    5.6000 O   0  0  0  0  0  0  0  0  0  0  0  0
  -11.2520  -35.6050    6.3840 F   0  0  0  0  0  0  0  0  0  0  0  0
   -6.2930  -35.3440    8.4970 Cl  0  0  0  0  0  0  0  0  0  0  0  0
 22 21  1  0
 21 15  1  0
 15 20  2  0
 15 14  1  0
 13 14  1  0
 13 12  2  0
 14 16  2  0
 12 23  1  0
 16 25  1  0
 23 25  2  0
 23 24  1  0
 25 11  1  0
 11 10  2  0
 11  8  1  0
 10  9  1  0
  8  7  2  0
  9  6  2  0
  7  6  1  0
  7  5  1  0
  6 28  1  0
  5 26  1  0
 28  1  1  0
 28 27  1  0
  1 29  2  0
  1  2  1  0
 27 26  1  0
  2  3  2  0
  2  4  1  0
 30  3  1  0
 31  4  1  0
  3 17  1  0
  4 19  2  0
 17 18  2  0
 19 18  1  0
M  END
$$$$
